data_image0
_cell_length_a       5.62857
_cell_length_b       5.62857
_cell_length_c       27.5742
_cell_angle_alpha    90
_cell_angle_beta     90
_cell_angle_gamma    60

_symmetry_space_group_name_H-M    "P 1"
_symmetry_int_tables_number       1

loop_
  _symmetry_equiv_pos_as_xyz
  'x, y, z'

loop_
  _atom_site_label
  _atom_site_occupancy
  _atom_site_fract_x
  _atom_site_fract_y
  _atom_site_fract_z
  _atom_site_thermal_displace_type
  _atom_site_B_iso_or_equiv
  _atom_site_type_symbol
  Pt1      1.0000 0.50000  0.50000  0.37500  Biso   1.000  Pt
  Pt2      1.0000 1.00000  0.00000  0.37500  Biso   1.000  Pt
  Pt3      1.0000 0.50000  0.00000  0.37500  Biso   1.000  Pt
  Pt4      1.0000 1.00000  0.50000  0.37500  Biso   1.000  Pt
  Pt5      1.0000 0.16667  0.16667  0.45833  Biso   1.000  Pt
  Pt6      1.0000 0.66667  0.66667  0.45833  Biso   1.000  Pt
  Pt7      1.0000 0.16667  0.66667  0.45833  Biso   1.000  Pt
  Pt8      1.0000 0.66667  0.16667  0.45833  Biso   1.000  Pt
  Pt9      1.0000 0.83333  0.83333  0.54167  Biso   1.000  Pt
  Pt10     1.0000 0.33333  0.33333  0.54167  Biso   1.000  Pt
  Pt11     1.0000 0.83333  0.33333  0.54167  Biso   1.000  Pt
  Pt12     1.0000 0.33333  0.83333  0.54167  Biso   1.000  Pt
  Pt13     1.0000 0.50000  0.50000  0.62500  Biso   1.000  Pt
  Pt14     1.0000 0.00000  0.00000  0.62500  Biso   1.000  Pt
  Pt15     1.0000 0.50000  0.00000  0.62500  Biso   1.000  Pt
  Pt16     1.0000 0.00000  0.50000  0.62500  Biso   1.000  Pt
  C1       1.0000 0.50000  0.50000  0.66852  Biso   1.000  C 
  O1       1.0000 0.50000  0.50000  0.71204  Biso   1.000  O 
